case141caracas.py
# Copyright (c) 1996-2015 PSERC. All rights reserved.
# Use of this source code is governed by a BSD-style
# license that can be found in the LICENSE file.

"""Power flow data for 141 bus data from Caracas real system.
"""

from numpy import array


def case141caracas():

    ppc = {"version": '2'}

    ##-----  Power Flow Data  -----##
    ## system MVA base
    ppc["baseMVA"] = 10.0

    ## bus data
    # bus_i type Pd Qd Gs Bs area Vm Va baseKV zone Vmax Vmin
    # Pd and Qd are in kVA, convert below to MVA
    ppc["bus"] = array([
        [1,    3,  0,      0,      0,  0,  1,  1,  0,  12.47,  1,  1,      1],
        [2,    1,  0,      0,     0,  0,  1,  1,  0,  12.47,  1,  1.1,    0.9],
        [3,    1,  0,      0,     0,  0,  1,  1,  0,  12.47,  1,  1.1,    0.9],
        [4,    1,  0,      0,     0,  0,  1,  1,  0,  12.47,  1,  1.1,    0.9],
        [5,    1,  0,      0,     0,  0,  1,  1,  0,  12.47,  1,  1.1,    0.9],
        [6,    1,  0,      0,     0,  0,  1,  1,  0,  12.47,  1,  1.1,    0.9],
        [7,    1,  0,      0,    0,  0,  1,  1,  0,  12.47,  1,  1.1,    0.9],
        [8,    1,  64,    40,    0,  0,  1,  1,  0,  12.47,  1,  1.1,    0.9],
        [9,    1,  9,     6,     0,  0,  1,  1,  0,  12.47,  1,  1.1,    0.9],
        [10,   1,  0,      0,     0,  0,  1,  1,  0,  12.47,  1,  1.1,    0.9],
        [11,   1,  0,      0,     0,  0,  1,  1,  0,  12.47,  1,  1.1,    0.9],
        [12,   1,  22,    14,     0,  0,  1,  1,  0,  12.47,  1,  1.1,    0.9],
        [13,   1,  64,     40,     0,  0,  1,  1,  0,  12.47,  1,  1.1,    0.9],
        [14,   1,  0,     0,     0,  0,  1,  1,  0,  12.47,  1,  1.1,    0.9],
        [15,   1,  0,     0,     0,  0,  1,  1,  0,  12.47,  1,  1.1,    0.9],
        [16,   1,  0,     0,     0,  0,  1,  1,  0,  12.47,  1,  1.1,    0.9],
        [17,   1,  128,     80,     0,  0,  1,  1,  0,  12.47,  1,  1.1,    0.9],
        [18,   1,  0,     0,     0,  0,  1,  1,  0,  12.47,  1,  1.1,    0.9],
        [19,   1,  0,     0,     0,  0,  1,  1,  0,  12.47,  1,  1.1,    0.9],
        [20,   1,  64,     40,     0,  0,  1,  1,  0,  12.47,  1,  1.1,    0.9],
        [21,   1,  64,     40,     0,  0,  1,  1,  0,  12.47,  1,  1.1,    0.9],
        [22,   1,  0,     0,     0,  0,  1,  1,  0,  12.47,  1,  1.1,    0.9],
        [23,   1,  64,     40,     0,  0,  1,  1,  0,  12.47,  1,  1.1,    0.9],
        [24,   1,  0,     0,    0,  0,  1,  1,  0,  12.47,  1,  1.1,    0.9],
        [25,   1,  0,     0,    0,  0,  1,  1,  0,  12.47,  1,  1.1,    0.9],
        [26,   1,  128,     80,     0,  0,  1,  1,  0,  12.47,  1,  1.1,    0.9],
        [27,   1,  64,     40,     0,  0,  1,  1,  0,  12.47,  1,  1.1,    0.9],
        [28,   1,  0,     0,     0,  0,  1,  1,  0,  12.47,  1,  1.1,    0.9],
        [29,   1,  64,    40,     0,  0,  1,  1,  0,  12.47,  1,  1.1,    0.9],
        [30,   1,  0,    0,    0,  0,  1,  1,  0,  12.47,  1,  1.1,    0.9],
        [31,   1,  0,    0,     0,  0,  1,  1,  0,  12.47,  1,  1.1,    0.9],
        [32,   1,  128,    80,    0,  0,  1,  1,  0,  12.47,  1,  1.1,    0.9],
        [33,   1,  0,     0,     0,  0,  1,  1,  0,  12.47,  1,  1.1,    0.9],
        [34,   1,  128,     80,     0,  0,  1,  1,  0,  12.47,  1,  1.1,    0.9],
        [35,   1,  255,     159,     0,  0,  1,  1,  0,  12.47,  1,  1.1,    0.9],
        [36,   1,  128,     80,     0,  0,  1,  1,  0,  12.47,  1,  1.1,    0.9],
        [37,   1,  43,     27,     0,  0,  1,  1,  0,  12.47,  1,  1.1,    0.9],
        [38,   1,  0,     0,     0,  0,  1,  1,  0,  12.47,  1,  1.1,    0.9],
        [39,   1,  17,     11,     0,  0,  1,  1,  0,  12.47,  1,  1.1,    0.9],
        [40,   1,  0,     0,     0,  0,  1,  1,  0,  12.47,  1,  1.1,    0.9],
        [41,   1,  64,     40,     0,  0,  1,  1,  0,  12.47,  1,  1.1,    0.9],
        [42,   1,  0,     0,     0,  0,  1,  1,  0,  12.47,  1,  1.1,    0.9],
        [43,   1,  0,     0,     0,  0,  1,  1,  0,  12.47,  1,  1.1,    0.9],
        [44,   1,  43,    27,     0,  0,  1,  1,  0,  12.47,  1,  1.1,    0.9],
        [45,   1,  0,     0,     0,  0,  1,  1,  0,  12.47,  1,  1.1,    0.9],
        [46,   1,  0,     0,     0,  0,  1,  1,  0,  12.47,  1,  1.1,    0.9],
        [47,   1,  0,     0,     0,  0,  1,  1,  0,  12.47,  1,  1.1,    0.9],
        [48,   1,  107,     66,     0,  0,  1,  1,  0,  12.47,  1,  1.1,    0.9],
        [49,   1,  128,     80,     0,  0,  1,  1,  0,  12.47,  1,  1.1,    0.9],
        [50,   1,  0,     0,     0,  0,  1,  1,  0,  12.47,  1,  1.1,    0.9],
        [51,   1,  107,     66,     0,  0,  1,  1,  0,  12.47,  1,  1.1,    0.9],
        [52,   1,  64,     40,     0,  0,  1,  1,  0,  12.47,  1,  1.1,    0.9],
        [53,   1,  85,     53,     0,  0,  1,  1,  0,  12.47,  1,  1.1,    0.9],
        [54,   1,  0,     0,     0,  0,  1,  1,  0,  12.47,  1,  1.1,    0.9],
        [55,   1,  0,     0,     0,  0,  1,  1,  0,  12.47,  1,  1.1,    0.9],
        [56,   1,  22,    14,     0,  0,  1,  1,  0,  12.47,  1,  1.1,    0.9],
        [57,   1,  0,     0,     0,  0,  1,  1,  0,  12.47,  1,  1.1,    0.9],
        [58,   1,  255,    159,     0,  0,  1,  1,  0,  12.47,  1,  1.1,    0.9],
        [59,   1, 128,     80,     0,  0,  1,  1,  0,  12.47,  1,  1.1,    0.9],
        [60,   1,  0,     0,     0,  0,  1,  1,  0,  12.47,  1,  1.1,    0.9],
        [61,   1,  255,    159,     0,  0,  1,  1,  0,  12.47,  1,  1.1,    0.9],
        [62,   1,  170,    106,     0,  0,  1,  1,  0,  12.47,  1,  1.1,    0.9],
        [63,   1,  0,     0,     0,  0,  1,  1,  0,  12.47,  1,  1.1,    0.9],
        [64,   1,  255,     159,     0,  0,  1,  1,  0,  12.47,  1,  1.1,    0.9],
        [65,   1,  128,     80,     0,  0,  1,  1,  0,  12.47,  1,  1.1,    0.9],
        [66,   1,  192,    119,     0,  0,  1,  1,  0,  12.47,  1,  1.1,    0.9],
        [67,   1,  43,     27,     0,  0,  1,  1,  0,  12.47,  1,  1.1,    0.9],
        [68,   1,  85,     53,     0,  0,  1,  1,  0,  12.47,  1,  1.1,    0.9],
        [69,   1,  255,    159,     0,  0,  1,  1,  0,  12.47,  1,  1.1,    0.9],
        [70,   1,  0,     0,     0,  0,  1,  1,  0,  12.47,  1,  1.1,    0.9],
        [71,   1,  255,    159,     0,  0,  1,  1,  0,  12.47,  1,  1.1,    0.9],
        [72,   1,  128,     80,     0,  0,  1,  1,  0,  12.47,  1,  1.1,    0.9],
        [73,   1,  255,     159,     0,  0,  1,  1,  0,  12.47,  1,  1.1,    0.9],
        [74,   1,  255,     159,     0,  0,  1,  1,  0,  12.47,  1,  1.1,    0.9],
        [75,   1,  39,     24,     0,  0,  1,  1,  0,  12.47,  1,  1.1,    0.9],
        [76,   1,  64,     40,     0,  0,  1,  1,  0,  12.47,  1,  1.1,    0.9],
        [77,   1,  128,     80,     0,  0,  1,  1,  0,  12.47,  1,  1.1,    0.9],
        [78,   1,  0,     0,     0,  0,  1,  1,  0,  12.47,  1,  1.1,    0.9],
        [79,   1,  428,   265,     0,  0,  1,  1,  0,  12.47,  1,  1.1,    0.9],
        [80,   1,  638,   396,     0,  0,  1,  1,  0,  12.47,  1,  1.1,    0.9],
        [81,   1,  0,     0,     0,  0,  1,  1,  0,  12.47,  1,  1.1,    0.9],
        [82,   1,  128,   80,     0,  0,  1,  1,  0,  12.47,  1,  1.1,    0.9],
        [83,   1,  64,    40,     0,  0,  1,  1,  0,  12.47,  1,  1.1,    0.9],
        [84,   1,  192,   119,     0,  0,  1,  1,  0,  12.47,  1,  1.1,    0.9],
        [85,   1,  0,     0,     0,  0,  1,  1,  0,  12.47,  1,  1.1,    0.9],
        [86,   1,  425,    264,     0,  0,  1,  1,  0,  12.47,  1,  1.1,    0.9],
        [87,   1,  128,     80,     0,  0,  1,  1,  0,  12.47,  1,  1.1,    0.9],
        [88,   1,  64,     40,     0,  0,  1,  1,  0,  12.47,  1,  1.1,    0.9],
        [89,   1,  56,     35,     0,  0,  1,  1,  0,  12.47,  1,  1.1,    0.9],
        [90,   1,  0,     0,     0,  0,  1,  1,  0,  12.47,  1,  1.1,    0.9],
        [91,   1,  0,     0,     0,  0,  1,  1,  0,  12.47,  1,  1.1,    0.9],
        [92,   1,  0,     0,     0,  0,  1,  1,  0,  12.47,  1,  1.1,    0.9],
        [93,   1,  0,     0,     0,  0,  1,  1,  0, 12.47,  1,  1.1,    0.9],
        [94,   1,  94,    58,     0,  0,  1,  1,  0,  12.47,  1,  1.1,    0.9],
        [95,   1,  0,     0,     0,  0,  1,  1,  0,  12.47,  1,  1.1,    0.9],
        [96,   1,  128,     80,     0,  0,  1,  1,  0,  12.47,  1,  1.1,    0.9],
        [97,   1,  0,     0,     0,  0,  1,  1,  0,  12.47,  1,  1.1,    0.9],
        [98,   1,  255,    159,     0,  0,  1,  1,  0,  12.47,  1,  1.1,    0.9],
        [99,   1,  0,     0,     0,  0,  1,  1,  0,  12.47,  1,  1.1,    0.9],
        [100,   1,  255,    159,     0,  0,  1,  1,  0,  12.47,  1,  1.1,    0.9],
        [101,   1,  13,     8,     0,  0,  1,  1,  0,  12.47,  1,  1.1,    0.9],
        [102,   1,  0,     0,     0,  0,  1,  1,  0, 12.47,  1,  1.1,    0.9],
        [103,   1,  107,     66,     0,  0,  1,  1,  0,  12.47,  1,  1.1,    0.9],
        [104,   1,  0,     0,     0,  0,  1,  1,  0,  12.47,  1,  1.1,    0.9],
        [105,   1,  255,    159,     0,  0,  1,  1,  0,  12.47,  1,  1.1,    0.9],
        [106,   1,  128,     80,     0,  0,  1,  1,  0,  12.47,  1,  1.1,    0.9],
        [107,   1,  428,     265,     0,  0,  1,  1,  0,  12.47,  1,  1.1,    0.9],
        [108,   1,  0,     0,     0,  0,  1,  1,  0,  12.47,  1,  1.1,    0.9],
        [109,   1,  638,     396,     0,  0,  1,  1,  0,  12.47,  1,  1.1,    0.9],
        [110,   1,  638,     396,     0,  0,  1,  1,  0,  12.47,  1,  1.1,    0.9],
        [111,   1,  22,     14,     0,  0,  1,  1,  0,  12.47,  1,  1.1,    0.9],
        [112,   1,  425,     265,     0,  0,  1,  1,  0,  12.47,  1,  1.1,    0.9],
        [113,   1,  64,     40,     0,  0,  1,  1,  0,  12.47,  1,  1.1,    0.9],
        [114,   1,  0,     0,     0,  0,  1,  1,  0,  12.47,  1,  1.1,    0.9],
        [115,   1,  0,     0,     0,  0,  1,  1,  0,  12.47,  1,  1.1,    0.9],
        [116,   1,  255,   159,     0,  0,  1,  1,  0,  12.47,  1,  1.1,    0.9],
        [117,   1,  56,    35,     0,  0,  1,  1,  0,  12.47,  1,  1.1,    0.9],
        [118,   1,  0,     0,     0,  0,  1,  1,  0,  12.47,  1,  1.1,    0.9],
        [119,   1,  94,    58,     0,  0,  1,  1,  0,  12.47,  1,  1.1,    0.9],
        [120,   1,  0,     0,     0,  0,  1,  1,  0,  12.47,  1,  1.1,    0.9],
        [121,   1,  0,     0,     0,  0,  1,  1,  0,  12.47,  1,  1.1,    0.9],
        [122,   1,  0,     0,     0,  0,  1,  1,  0,  12.47,  1,  1.1,    0.9],
        [123,   1,  85,    53,     0,  0,  1,  1,  0,  12.47,  1,  1.1,    0.9],
        [124,   1,  107,   66,     0,  0,  1,  1,  0,  12.47,  1,  1.1,    0.9],
        [125,   1,  0,     0,     0,  0,  1,  1,  0,  12.47,  1,  1.1,    0.9],
        [126,   1,  0,     0,     0,  0,  1,  1,  0,  12.47,  1,  1.1,    0.9],
        [127,   1,  64,    40,     0,  0,  1,  1,  0,  12.47,  1,  1.1,    0.9],
        [128,   1,  64,    40,     0,  0,  1,  1,  0,  12.47,  1,  1.1,    0.9],
        [129,   1,  94,   58,     0,  0,  1,  1,  0,  12.47,  1,  1.1,    0.9],
        [130,   1,  96,   60,     0,  0,  1,  1,  0,  12.47,  1,  1.1,    0.9],
        [131,   1,  0,     0,     0,  0,  1,  1,  0,  12.47,  1,  1.1,    0.9],
        [132,   1,  64,     40,     0,  0,  1,  1,  0,  12.47,  1,  1.1,    0.9],
        [133,   1,  39,     24,     0,  0,  1,  1,  0,  12.47,  1,  1.1,    0.9],
        [134,   1,  30,     19,     0,  0,  1,  1,  0,  12.47,  1,  1.1,    0.9],
        [135,   1,  22,     14,     0,  0,  1,  1,  0,  12.47,  1,  1.1,    0.9],
        [136,   1,  64,     40,     0,  0,  1,  1,  0,  12.47,  1,  1.1,    0.9],
        [137,   1,  47,     29,     0,  0,  1,  1,  0,  12.47,  1,  1.1,    0.9],
        [138,   1,  43,     27,     0,  0,  1,  1,  0,  12.47,  1,  1.1,    0.9],
        [139,   1,  43,     27,     0,  0,  1,  1,  0,  12.47,  1,  1.1,    0.9],
        [140,   1,  128,     80,     0,  0,  1,  1,  0,  12.47,  1,  1.1,    0.9],
        [141,   1,  64,     40,     0,  0,  1,  1,  0, 12.47,  1,  1.1,    0.9]
    ])

    ## generator data
    # bus, Pg, Qg, Qmax, Qmin, Vg, mBase, status, Pmax, Pmin, Pc1, Pc2,
    # Qc1min, Qc1max, Qc2min, Qc2max, ramp_agc, ramp_10, ramp_30, ramp_q, apf
    # Limits in MVA
    ppc["gen"] = array([
        [1, 0,  0,  10, -10,    1,  100,    1,  10,
         -10,  0,  0,  0,  0,  0,  0,  0,  0,  0,  0,  0],
        # Placeholder agent for bus 1
        [1, 0,  0,  0,   0,  1,  100,    1,  0,
         0,  0,  0,  0,  0,  0,  0,  0,  0,  0,  0,  0],
        [30, 1.31,  0,  2,  -2,     1,  100,    1,  2,
         0,  0,  0,  0,  0,  0,  0,  0,  0,  0,  0,  0],
        [40, 2,  0,  2,  -2,     1,  100,    1,  2,
         0,  0,  0,  0,  0,  0,  0,  0,  0,  0,  0,  0],
        [50, 2,  0,  2, -2,     1,  100,    1,   2,
         0,  0,  0,  0,  0,  0,  0,  0,  0,  0,  0,  0],
        [60, 2,  0,  2, -2,     1,  100,    1,   2,
         0,  0,  0,  0,  0,  0,  0,  0,  0,  0,  0,  0],
        [70, 2,  0,  2, -2,     1,  100,    1,  2,
         0,  0,  0,  0,  0,  0,  0,  0,  0,  0,  0,  0],
        [80, 2,  0,  2, -2,     1,  100,    1,  2,
         0,  0,  0,  0,  0,  0,  0,  0,  0,  0,  0,  0],
        [101, 1.49,  0,  2, -2,     1,  100,    1,  2,
         0,  0,  0,  0,  0,  0,  0,  0,  0,  0,  0,  0],
        [121, 2,  0,  2, -2,     1,  100,    1,  2,
         0,  0,  0,  0,  0,  0,  0,  0,  0,  0,  0,  0]
    ])

    ## branch data
    # fbus, tbus, r, x, b, rateA, rateB, rateC, ratio, angle, status, angmin, angmax
    # branch r and x in ohms, converted to pu below
    ppc["branch"] = array([
        [1,     2,  0.0577, 0.0409, 0,  12,  0,  0,  0,  0,  1,  -360,   360],
        [2,     3,  0.1725, 0.1223, 0,  12,  0,  0,  0,  0,  1,  -360,   360],
        [3,     4,  0.0009, 0.0006, 0,  12,  0,  0,  0,  0,  1,  -360,   360],
        [4,     5,  0.0092, 0.0065, 0,  12,  0,  0,  0,  0,  1,  -360,   360],
        [5,     6,  0.0068, 0.0049, 0,  12,  0,  0,  0,  0,  1,  -360,   360],
        [6,     7,  0.0469, 0.0625, 0,  12,  0,  0,  0,  0,  1,  -360,   360],
        [7,     8,  0.0736, 0.0981, 0,  5,  0,  0,  0,  0,  1,  -360,   360],
        [8,     9,  0.0649, 0.0459, 0,  5,  0,  0,  0,  0,  1,  -360,   360],
        [9,     10, 0.0507, 0.0359, 0,  5,  0,  0,  0,  0,  1,  -360,   360],
        [10,    11, 0.0116, 0.0082, 0,  5,  0,  0,  0,  0,  1,  -360,   360],
        [11,    12, 0.1291, 0.0913, 0,  5,  0,  0,  0,  0,  1,  -360,   360],
        [12,    13, 0.1227, 0.0866, 0,  5,  0,  0,  0,  0,  1,  -360,   360],
        [13,    14, 0.0488, 0.0345, 0,  5,  0,  0,  0,  0,  1,  -360,   360],
        [14,    15, 0.0957, 0.0677, 0,  5,  0,  0,  0,  0,  1,  -360,   360],
        [15,    16, 0.0860, 0.0609, 0,  1.5,  0,  0,  0,  0,  1,  -360,   360],
        [16,    17, 0.0398, 0.0282, 0,  1.5,  0,  0,  0,  0,  1,  -360,   360],
        [17,    18, 0.0828, 0.0566, 0,  1.5,  0,  0,  0,  0,  1,  -360,   360],
        [18,    19, 0.0186, 0.0132, 0,  1.5,  0,  0,  0,  0,  1,  -360,   360],
        [19,    20, 0.0559, 0.0395, 0,  1.5,  0,  0,  0,  0,  1,  -360,   360],
        [20,    21, 0.0365, 0.0246, 0,  1,  0,  0,  0,  0,  1,  -360,   360],
        [21,    22, 0.0573, 0.0307, 0,  1,  0,  0,  0,  0,  1,  -360,   360],
        [22,    23, 0.0263, 0.0191, 0,  1,  0,  0,  0,  0,  1,  -360,   360],
        [23,    24, 0.0683, 0.0497, 0,  1,  0,  0,  0,  0,  1,  -360,   360],
        [24,    25, 0.0398, 0.0282, 0,  1,  0,  0,  0,  0,  1,  -360,   360],
        [25,    26, 0.0729, 0.0530, 0,  1,  0,  0,  0,  0,  1,  -360,   360],
        [26,    27, 0.0355, 0.0244, 0,  1,  0,  0,  0,  0,  1,  -360,   360],
        [27,    28, 0.0584, 0.0414, 0,  1,  0,  0,  0,  0,  1,  -360,   360],
        [28,    29, 0.0655, 0.0463, 0,  1,  0,  0,  0,  0,  1,  -360,   360],
        [29,    30, 0.0342, 0.0248, 0,  1,  0,  0,  0,  0,  1,  -360,   360],
        [30,    31, 0.0128, 0.0091, 0,  1,  0,  0,  0,  0,  1,  -360,   360],
        [31,    32, 0.0347, 0.0245, 0,  1,  0,  0,  0,  0,  1,  -360,   360],
        [61,    62, 0.0411, 0.0291, 0,  1.5,  0,  0,  0,  0,  1,  -360,   360],
        [60,    63, 0.0353, 0.0250, 0,  1.5,  0,  0,  0,  0,  1,  -360,   360],
        [63,    64, 0.1047, 0.0741, 0,  1.5,  0,  0,  0,  0,  1,  -360,   360],
        [64,    65, 0.0674, 0.0477, 0,  1.5,  0,  0,  0,  0,  1,  -360,   360],
        [65,    66, 0.0302, 0.0214, 0,  1.5,  0,  0,  0,  0,  1,  -360,   360],
        [66,    67, 0.0456, 0.0323, 0,  1.5,  0,  0,  0,  0,  1,  -360,   360],
        [67,    68, 0.0218, 0.0154, 0,  1.5,  0,  0,  0,  0,  1,  -360,   360],
        [70,    72, 0.0700, 0.0495, 0,  1,  0,  0,  0,  0,  1,  -360,   360],
        [42,    73, 0.0231, 0.0164, 0,  1.5,  0,  0,  0,  0,  1,  -360,   360],
        [73,    74, 0.0030, 0.0064, 0,  1.5,  0,  0,  0,  0,  1,  -360,   360],
        [43,    75, 0.0379, 0.0268, 0,  1.5,  0,  0,  0,  0,  1,  -360,   360],
        [44,    76, 0.0552, 0.0391, 0,  1.5,  0,  0,  0,  0,  1,  -360,   360],
        [76,    77, 0.0516, 0.0436, 0,  1.5,  0,  0,  0,  0,  1,  -360,   360],
        [46,    78, 0.0167, 0.0110, 0,  1.5,  0,  0,  0,  0,  1,  -360,   360],
        [78,    79, 0.0415, 0.0101, 0,  1.5,  0,  0,  0,  0,  1,  -360,   360],
        [79,    80, 0.1003, 0.0244, 0,  1,  0,  0,  0,  0,  1,  -360,   360],
        [79,    81, 0.1513, 0.0370, 0,  1,  0,  0,  0,  0,  1,  -360,   360],
        [81,    82, 0.0033, 0.0008, 0,  1,  0,  0,  0,  0,  1,  -360,   360],
        [47,    83, 0.0085, 0.0062, 0,  1,  0,  0,  0,  0,  1,  -360,   360],
        [49,    84, 0.0517, 0.0449, 0,  1,  0,  0,  0,  0,  1,  -360,   360],
        [50,    85, 0.0147, 0.0036, 0,  1,  0,  0,  0,  0,  1,  -360,   360],
        [85,    86, 0.0037, 0.0016, 0,  1,  0,  0,  0,  0,  1,  -360,   360],
        [86,    87, 0.0001, 0.0001, 0,  1,  0,  0,  0,  0,  1,  -360,   360],
        [7,     88, 0.0174, 0.0231, 0,  4,  0,  0,  0,  0,  1,  -360,   360],
        [88,    89, 0.0469, 0.0625, 0,  4,  0,  0,  0,  0,  1,  -360,   360],
        [89,    90, 0.0299, 0.0398, 0,  4,  0,  0,  0,  0,  1,  -360,   360],
        [90,    91, 0.0212, 0.0283, 0,  4,  0,  0,  0,  0,  1,  -360,   360],
        [91,    92, 0.0315, 0.0420, 0,  2.5,  0,  0,  0,  0,  1,  -360,   360],
        [92,    93, 0.0280, 0.0373, 0,  2.5,  0,  0,  0,  0,  1,  -360,   360],
        [93,    94, 0.0206, 0.0274, 0,  2.5,  0,  0,  0,  0,  1,  -360,   360],
        [94,    95, 0.0206, 0.0274, 0,  1,  0,  0,  0,  0,  1,  -360,   360],
        [89,    96, 0.0687, 0.0486, 0,  1,  0,  0,  0,  0,  1,  -360,   360],
        [96,    97, 0.0970, 0.0686, 0,  1,  0,  0,  0,  0,  1,  -360,   360],
        [97,    98, 0.0902, 0.0196, 0,  1,  0,  0,  0,  0,  1,  -360,   360],
        [97,    99, 0.0033, 0.0008, 0,  1,  0,  0,  0,  0,  1,  -360,   360],
        [131,  132, 0.0347, 0.0245, 0,  1,  0,  0,  0,  0,  1,  -360,   360],
        [131,  133, 0.0920, 0.0669, 0,  1,  0,  0,  0,  0,  1,  -360,   360],
        [121,  134, 0.0841, 0.0612, 0,  1,  0,  0,  0,  0,  1,  -360,   360],
        [16,   135, 0.0527, 0.0373, 0,  1,  0,  0,  0,  0,  1,  -360,   360],
        [16,   136, 0.0302, 0.0214, 0,  1,  0,  0,  0,  0,  1,  -360,   360],
        [18,   137, 0.0584, 0.0414, 0,  1,  0,  0,  0,  0,  1,  -360,   360],
        [23,   138, 0.0769, 0.0559, 0,  1,  0,  0,  0,  0,  1,  -360,   360],
        [2,     33, 0.0443, 0.0314, 0,  1,  0,  0,  0,  0,  1,  -360,   360],
        [33,    34, 0.0020, 0.0009, 0,  1,  0,  0,  0,  0,  1,  -360,   360],
        [5,     35, 0.2274, 0.0554, 0,  1,  0,  0,  0,  0,  1,  -360,   360],
        [5,     36, 0.1265, 0.1565, 0,  1,  0,  0,  0,  0,  1,  -360,   360],
        [6,     37, 0.0055, 0.0073, 0,  6,  0,  0,  0,  0,  1,  -360,   360],
        [37,    38, 0.2036, 0.1440, 0,  6,  0,  0,  0,  0,  1,  -360,   360],
        [38,    39, 0.0938, 0.0663, 0,  6,  0,  0,  0,  0,  1,  -360,   360],
        [39,    40, 0.0347, 0.0245, 0,  6,  0,  0,  0,  0,  1,  -360,   360],
        [40,    41, 0.0918, 0.0650, 0,  6,  0,  0,  0,  0,  1,  -360,   360],
        [41,    42, 0.2318, 0.1640, 0,  6,  0,  0,  0,  0,  1,  -360,   360],
        [42,    43, 0.1207, 0.0854, 0,  5,  0,  0,  0,  0,  1,  -360,   360],
        [43,    44, 0.0443, 0.0314, 0,  5,  0,  0,  0,  0,  1,  -360,   360],
        [44,    45, 0.0405, 0.0288, 0,  5,  0,  0,  0,  0,  1,  -360,   360],
        [45,    46, 0.0160, 0.0127, 0,  5,  0,  0,  0,  0,  1,  -360,   360],
        [46,    47, 0.0636, 0.0450, 0,  3,  0,  0,  0,  0,  1,  -360,   360],
        [47,    48, 0.0417, 0.0295, 0,  3,  0,  0,  0,  0,  1,  -360,   360],
        [48,    49, 0.0732, 0.0510, 0,  3,  0,  0,  0,  0,  1,  -360,   360],
        [49,    50, 0.0828, 0.0556, 0,  3,  0,  0,  0,  0,  1,  -360,   360],
        [50,    51, 0.0398, 0.0282, 0,  3,  0,  0,  0,  0,  1,  -360,   360],
        [51,    52, 0.0225, 0.0159, 0,  3,  0,  0,  0,  0,  1,  -360,   360],
        [38,    53, 0.0841, 0.0595, 0,  1,  0,  0,  0,  0,  1,  -360,   360],
        [42,    54, 0.0161, 0.0114, 0,  2.75,  0,  0,  0,  0,  1,  -360,   360],
        [54,    55, 0.0527, 0.0373, 0,  2.75,  0,  0,  0,  0,  1,  -360,   360],
        [55,    56, 0.0893, 0.0632, 0,  1,  0,  0,  0,  0,  1,  -360,   360],
        [56,    57, 0.0867, 0.0613, 0,  1,  0,  0,  0,  0,  1,  -360,   360],
        [57,    58, 0.0674, 0.0477, 0,  1,  0,  0,  0,  0,  1,  -360,   360],
        [58,    59, 0.0469, 0.0332, 0,  1,  0,  0,  0,  0,  1,  -360,   360],
        [55,    60, 0.0334, 0.0236, 0,  1.5,  0,  0,  0,  0,  1,  -360,   360],
        [60,    61, 0.0327, 0.0232, 0,  1,  0,  0,  0,  0,  1,  -360,   360],
        [63,    69, 0.0336, 0.0259, 0,  1,  0,  0,  0,  0,  1,  -360,   360],
        [55,    70, 0.0231, 0.0164, 0,  1,  0,  0,  0,  0,  1,  -360,   360],
        [70,    71, 0.0120, 0.0029, 0,  1,  0,  0,  0,  0,  1,  -360,   360],
        [99,   100, 0.0033, 0.0008, 0,  1,  0,  0,  0,  0,  1,  -360,   360],
        [91,   101, 0.0231, 0.0164, 0,  1,  0,  0,  0,  0,  1,  -360,   360],
        [101,  102, 0.0578, 0.0409, 0,  1,  0,  0,  0,  0,  1,  -360,   360],
        [102,  103, 0.0889, 0.0217, 0,  1,  0,  0,  0,  0,  1,  -360,   360],
        [103,  104, 0.0629, 0.0153, 0,  1,  0,  0,  0,  0,  1,  -360,   360],
        [104,  105, 0.1170, 0.0285, 0,  1,  0,  0,  0,  0,  1,  -360,   360],
        [104,  106, 0.0114, 0.0026, 0,  1,  0,  0,  0,  0,  1,  -360,   360],
        [92,   107, 0.0849, 0.0207, 0,  1,  0,  0,  0,  0,  1,  -360,   360],
        [94,   108, 0.0612, 0.0260, 0,  1,  0,  0,  0,  0,  1,  -360,   360],
        [108,  109, 0.0452, 0.0192, 0,  1,  0,  0,  0,  0,  1,  -360,   360],
        [94,   110, 0.0033, 0.0008, 0,  1,  0,  0,  0,  0,  1,  -360,   360],
        [7,    111, 0.0719, 0.0509, 0,  1,  0,  0,  0,  0,  1,  -360,   360],
        [10,   112, 0.1070, 0.0261, 0,  1,  0,  0,  0,  0,  1,  -360,   360],
        [11,   113, 0.0347, 0.0245, 0,  1,  0,  0,  0,  0,  1,  -360,   360],
        [13,   114, 0.0623, 0.0441, 0,  1,  0,  0,  0,  0,  1,  -360,   360],
        [114,  115, 0.0668, 0.0473, 0,  1,  0,  0,  0,  0,  1,  -360,   360],
        [115,  116, 0.0040, 0.0010, 0,  1,  0,  0,  0,  0,  1,  -360,   360],
        [14,   117, 0.0506, 0.0366, 0,  1,  0,  0,  0,  0,  1,  -360,   360],
        [15,   118, 0.0161, 0.0114, 0,  2,  0,  0,  0,  0,  1,  -360,   360],
        [118,  119, 0.0462, 0.0327, 0,  2,  0,  0,  0,  0,  1,  -360,   360],
        [119,  120, 0.0424, 0.0300, 0,  2,  0,  0,  0,  0,  1,  -360,   360],
        [120,  121, 0.0507, 0.0359, 0,  2,  0,  0,  0,  0,  1,  -360,   360],
        [121,  122, 0.0732, 0.0518, 0,  2,  0,  0,  0,  0,  1,  -360,   360],
        [122,  123, 0.0584, 0.0414, 0,  2,  0,  0,  0,  0,  1,  -360,   360],
        [123,  124, 0.0610, 0.0432, 0,  1,  0,  0,  0,  0,  1,  -360,   360],
        [124,  125, 0.0783, 0.0554, 0,  1,  0,  0,  0,  0,  1,  -360,   360],
        [125,  126, 0.0834, 0.0607, 0,  1,  0,  0,  0,  0,  1,  -360,   360],
        [126,  127, 0.0347, 0.0245, 0,  1,  0,  0,  0,  0,  1,  -360,   360],
        [127,  128, 0.0570, 0.0420, 0,  1,  0,  0,  0,  0,  1,  -360,   360],
        [128,  129, 0.0585, 0.0425, 0,  1,  0,  0,  0,  0,  1,  -360,   360],
        [129,  130, 0.0103, 0.0073, 0,  1,  0,  0,  0,  0,  1,  -360,   360],
        [119,  131, 0.0355, 0.0253, 0,  1,  0,  0,  0,  0,  1,  -360,   360],
        [25,   139, 0.0950, 0.0673, 0,  1,  0,  0,  0,  0,  1,  -360,   360],
        [30,   140, 0.0519, 0.0377, 0,  1,  0,  0,  0,  0,  1,  -360,   360],
        [31,   141, 0.0584, 0.0414, 0,  1,  0,  0,  0,  0,  1,  -360,   360]
        #Tie lines
        # [21	8	2.0000	2.0000	0	0	0	0	0	0	0 -360	360],
        # [9	15	2.0000	2.0000	0	0	0	0	0	0	0 -360	360],
        # [12	22	2.0000	2.0000	0	0	0	0	0	0	0 -360	360],
        # [18	33	0.5000	0.5000	0	0	0	0	0	0	0 -360	360],
        # [25	29	0.5000	0.5000	0	0	0	0	0	0	0 -360	360]
    ])

    ## generator cost data
    # 1 startup shutdown n x1 y1 ... xn yn
    # 2 startup shutdown n c(n-1) ... c0
    ppc["gencost"] = array([
       [2, 0, 0, 3, 0, 20, 0],
       [2, 0, 0, 3, 0, 20, 0],
       [2, 0, 0, 3, 0, 10, 0],
       [2, 0, 0, 3, 0, 12, 0],
       [2, 0, 0, 3, 0, 11, 0],
       [2, 0, 0, 3, 0, 15, 0],
       [2, 0, 0, 3, 0, 10, 0],
       [2, 0, 0, 3, 0, 17, 0],
       [2, 0, 0, 3, 0, 10, 0],
       [2, 0, 0, 3, 0, 13, 0]
    ])
    
    # ppc["gencost"] = array([
    #     [2, 0, 0, 3, 0, 10, 0],
    #     [2, 0, 0, 3, 0, 10, 0],
    #     [2, 0, 0, 3, 0, 10, 0],
    #     [2, 0, 0, 3, 0, 10, 0],
    #     [2, 0, 0, 3, 0, 10, 0],
    #     [2, 0, 0, 3, 0, 10, 0],
    #     [2, 0, 0, 3, 0, 10, 0],
    #     [2, 0, 0, 3, 0, 10, 0],
    #     [2, 0, 0, 3, 0, 10, 0],
    #     [2, 0, 0, 3, 0, 10, 0]
    # ])


    Vbase = ppc["bus"][0, 9]
    sBase = ppc["baseMVA"]
    zBase = (Vbase*Vbase)/sBase
    for i in range(len(ppc["branch"])):
        ppc["branch"][i, 2] = ppc["branch"][i, 2]/zBase
        ppc["branch"][i, 3] = ppc["branch"][i, 3]/zBase

    # Demand scalar
    demandScale = 1
    for i in range(len(ppc["bus"])):
        # Double base demand
        ppc["bus"][i, 2] = demandScale*ppc["bus"][i, 2] / 1e3
        ppc["bus"][i, 3] = demandScale*ppc["bus"][i, 3] / 1e3

    return ppc
